Master_J1/OutputDSS.dss
Clear

New Circuit.J1_Reduced bus1=S basekv=69 pu=0.97 R1=1.376 X1=14.257 R0=0.001 X0=8.203
New Line.ls_bus_feederhead Phases=3 bus1=ls_bus.1.2.3 bus2=feederhead.1.2.3 Units=km Length=0.001 Rmatrix=[1                  0                  0| 0                  1                  0| 0                  0                  1|] Xmatrix=[1                  0                  0| 0                  1                  0| 0                  0                  1|] Cmatrix=[0                  0                  0| 0                  0                  0| 0                  0                  0|]
New Line.feederhead_5964927408 Phases=3 bus1=feederhead.1.2.3 bus2=5964927408.1.2.3 Units=km Length=0.022859999 Rmatrix=[        0.19316    0.0707499999999    0.0707499999999| 0.0707499999999            0.19316    0.0707500000001| 0.0707499999999    0.0707500000001            0.19316|] Xmatrix=[0.688060000001            0.29312            0.29312|        0.29312            0.68806            0.29312|        0.29312            0.29312            0.68806|] Cmatrix=[0                  0                  0| 0                  0                  0| 0                  0                  0|]
New Line.b12541_b13552 Phases=1 bus1=b12541.1 bus2=b13552.1 Units=km Length=0.088696797 Rmatrix=0.85376 Xmatrix=0.52809 Cmatrix=0
New Line.b12541_g42890 Phases=1 bus1=b12541.1 bus2=g42890.1 Units=km Length=0.013716 Rmatrix=0.85376 Xmatrix=0.52809 Cmatrix=0
New Line.b13552_b56943 Phases=1 bus1=b13552.1 bus2=b56943.1 Units=km Length=0.048463198 Rmatrix=0.85376 Xmatrix=0.52809 Cmatrix=0
New Line.b41868_b41869 Phases=2 bus1=b41868.1.2 bus2=b41869.1.2 Units=km Length=0.057911998 Rmatrix=[0.979473333333     0.125713333333| 0.125713333333     0.979473333333|] Xmatrix=[0.848586666667     0.320706666667| 0.320706666667     0.848586666667|] Cmatrix=[0                  0| 0                  0|]
New Line.b41869_b41870 Phases=2 bus1=b41869.1.2 bus2=b41870.1.2 Units=km Length=0.058826398 Rmatrix=[0.979473333333     0.125713333333| 0.125713333333     0.979473333333|] Xmatrix=[0.848586666667     0.320706666667| 0.320706666667     0.848586666667|] Cmatrix=[0                  0| 0                  0|]
New Line.b4609_b34986 Phases=1 bus1=b4609.3 bus2=b34986.3 Units=km Length=0.1063752 Rmatrix=0.85376 Xmatrix=0.52809 Cmatrix=0
New Line.b4609_b4616 Phases=3 bus1=b4609.1.2.3 bus2=b4616.1.2.3 Units=km Length=0.17861279 Rmatrix=[0.97924            0.12548            0.12548| 0.12548            0.97924            0.12548| 0.12548            0.12548     0.979240000001|] Xmatrix=[0.848900000001            0.35405            0.35405|        0.35405             0.8489     0.354050000001|        0.35405     0.354050000001             0.8489|] Cmatrix=[0                  0                  0| 0                  0                  0| 0                  0                  0|]
New Line.g43132_g43133 Phases=1 bus1=g43132.3 bus2=g43133.3 Units=km Length=0.046329599 Rmatrix=0.85376 Xmatrix=0.52809 Cmatrix=0
New Line.g43133_5957328181 Phases=1 bus1=g43133.3 bus2=5957328181.3 Units=km Length=0.1271016 Rmatrix=0.86868 Xmatrix=0.56322 Cmatrix=0
New Line.g43133_g43135 Phases=1 bus1=g43133.3 bus2=g43135.3 Units=km Length=0.1072896 Rmatrix=0.85376 Xmatrix=0.52809 Cmatrix=0
New Line.b18915_b18916 Phases=3 bus1=b18915.1.2.3 bus2=b18916.1.2.3 Units=km Length=0.045719999 Rmatrix=[0.67104            0.12548            0.12548| 0.12548            0.67104            0.12548| 0.12548            0.12548            0.67104|] Xmatrix=[0.879926666667     0.354036666667     0.354036666667| 0.354036666667     0.879926666668     0.354036666667| 0.354036666667     0.354036666667     0.879926666666|] Cmatrix=[0                  0                  0| 0                  0                  0| 0                  0                  0|]
New Line.b18915_5991028755 Phases=1 bus1=b18915.2 bus2=5991028755.2 Units=km Length=0.012192 Rmatrix=0.5716 Xmatrix=0.39488 Cmatrix=0
New Line.b18916_b18917 Phases=3 bus1=b18916.1.2.3 bus2=b18917.1.2.3 Units=km Length=0.045719999 Rmatrix=[0.67104            0.12548            0.12548| 0.12548            0.67104            0.12548| 0.12548            0.12548            0.67104|] Xmatrix=[0.879926666667     0.354036666667     0.354036666666| 0.354036666667     0.879926666667     0.354036666666| 0.354036666666     0.354036666666     0.879926666666|] Cmatrix=[0                  0                  0| 0                  0                  0| 0                  0                  0|]
New Line.b4833_5862128364 Phases=3 bus1=b4833.1.2.3 bus2=5862128364.1.2.3 Units=km Length=0.024383999 Rmatrix=[0.991253333333     0.122573333333     0.122573333333| 0.122573333333     0.991253333333     0.122573333334| 0.122573333333     0.122573333334     0.991253333333|] Xmatrix=[0.88676            0.35677            0.35677| 0.35677            0.88676            0.35677| 0.35677            0.35677            0.88676|] Cmatrix=[0                  0                  0| 0                  0                  0| 0                  0                  0|]
New Line.b4833_b18821 Phases=3 bus1=b4833.1.2.3 bus2=b18821.1.2.3 Units=km Length=0.078638397 Rmatrix=[0.225026666667     0.102616666667     0.102616666667| 0.102616666667     0.225026666667     0.102616666667| 0.102616666667     0.102616666667     0.225026666667|] Xmatrix=[0.718893333333     0.323953333333     0.323953333333| 0.323953333333     0.718893333334     0.323953333333| 0.323953333333     0.323953333333     0.718893333333|] Cmatrix=[0                  0                  0| 0                  0                  0| 0                  0                  0|]
New Line.b4833_b30895 Phases=3 bus1=b4833.1.2.3 bus2=b30895.1.2.3 Units=km Length=0.026212799 Rmatrix=[0.97924            0.12548            0.12548| 0.12548            0.97924            0.12548| 0.12548            0.12548            0.97924|] Xmatrix=[ 0.8489            0.35405            0.35405| 0.35405             0.8489            0.35405| 0.35405            0.35405             0.8489|] Cmatrix=[0                  0                  0| 0                  0                  0| 0                  0                  0|]
New Line.5862128364_5863228358 Phases=3 bus1=5862128364.1.2.3 bus2=5863228358.1.2.3 Units=km Length=0.013716 Rmatrix=[0.991253333333     0.122573333333     0.122573333333| 0.122573333333     0.991253333333     0.122573333333| 0.122573333333     0.122573333333     0.991253333333|] Xmatrix=[0.88676            0.35677            0.35677| 0.35677            0.88676            0.35677| 0.35677            0.35677            0.88676|] Cmatrix=[0                  0                  0| 0                  0                  0| 0                  0                  0|]
New Line.b4787_b4784 Phases=3 bus1=b4787.1.2.3 bus2=b4784.1.2.3 Units=km Length=0.032308799 Rmatrix=[0.19316            0.07075            0.07075| 0.07075            0.19316            0.07075| 0.07075            0.07075            0.19316|] Xmatrix=[0.68806            0.29312            0.29312| 0.29312            0.68806            0.29312| 0.29312            0.29312            0.68806|] Cmatrix=[0                  0                  0| 0                  0                  0| 0                  0                  0|]
New Line.b4784_b4781 Phases=3 bus1=b4784.1.2.3 bus2=b4781.1.2.3 Units=km Length=0.057302398 Rmatrix=[0.19316            0.07075            0.07075| 0.07075            0.19316            0.07075| 0.07075            0.07075            0.19316|] Xmatrix=[0.68806            0.29312            0.29312| 0.29312            0.68806            0.29312| 0.29312            0.29312            0.68806|] Cmatrix=[0                  0                  0| 0                  0                  0| 0                  0                  0|]
New Line.b4784_b38337 Phases=1 bus1=b4784.1 bus2=b38337.1 Units=km Length=0.030175199 Rmatrix=0.85376 Xmatrix=0.52809 Cmatrix=0
New Line.b45833_b45835 Phases=1 bus1=b45833.2 bus2=b45835.2 Units=km Length=0.1301496 Rmatrix=0.85376 Xmatrix=0.52809 Cmatrix=0
New Line.b45835_b45836 Phases=1 bus1=b45835.2 bus2=b45836.2 Units=km Length=0.064922398 Rmatrix=0.85376 Xmatrix=0.52809 Cmatrix=0
New Line.5925528209_5925528209a Phases=1 bus1=5925528209.3 bus2=5925528209a.3 Units=km Length=0.061264798 Rmatrix=0.5273 Xmatrix=0.55913 Cmatrix=0
New Line.5925528209_5927328209 Phases=1 bus1=5925528209.3 bus2=5927328209.3 Units=km Length=0.022859999 Rmatrix=0.86868 Xmatrix=0.56322 Cmatrix=0
New Line.6084829720_b50640 Phases=1 bus1=6084829720.1 bus2=b50640.1 Units=km Length=0.1136904 Rmatrix=0.85376 Xmatrix=0.52809 Cmatrix=0
New Line.b50640_b50641 Phases=1 bus1=b50640.1 bus2=b50641.1 Units=km Length=0.021335999 Rmatrix=0.85376 Xmatrix=0.52809 Cmatrix=0
New Line.b4806_b4805 Phases=3 bus1=b4806.1.2.3 bus2=b4805.1.2.3 Units=km Length=0.024688799 Rmatrix=[0.19316            0.07075            0.07075| 0.07075            0.19316            0.07075| 0.07075            0.07075            0.19316|] Xmatrix=[0.68806            0.29312            0.29312| 0.29312            0.68806            0.29312| 0.29312            0.29312            0.68806|] Cmatrix=[0                  0                  0| 0                  0                  0| 0                  0                  0|]
New Line.b4805_b4797 Phases=3 bus1=b4805.1.2.3 bus2=b4797.1.2.3 Units=km Length=0.034747199 Rmatrix=[0.19316            0.07075            0.07075| 0.07075            0.19316            0.07075| 0.07075            0.07075            0.19316|] Xmatrix=[0.68806            0.29312            0.29312| 0.29312            0.68806            0.29312| 0.29312            0.29312            0.68806|] Cmatrix=[0                  0                  0| 0                  0                  0| 0                  0                  0|]
New Line.b4711_b4710 Phases=3 bus1=b4711.1.2.3 bus2=b4710.1.2.3 Units=km Length=0.035966399 Rmatrix=[0.24789            0.12548            0.12548| 0.12548            0.24789            0.12548| 0.12548            0.12548            0.24789|] Xmatrix=[0.748993333333     0.354053333333     0.354053333333| 0.354053333333     0.748993333333     0.354053333333| 0.354053333333     0.354053333333     0.748993333333|] Cmatrix=[0                  0                  0| 0                  0                  0| 0                  0                  0|]
New Line.b4710_b4709 Phases=3 bus1=b4710.1.2.3 bus2=b4709.1.2.3 Units=km Length=0.038099999 Rmatrix=[0.225026666667     0.102616666667     0.102616666667| 0.102616666667     0.225026666667     0.102616666667| 0.102616666667     0.102616666667     0.225026666667|] Xmatrix=[0.718893333334     0.323953333333     0.323953333333| 0.323953333333     0.718893333333     0.323953333333| 0.323953333333     0.323953333333     0.718893333334|] Cmatrix=[0                  0                  0| 0                  0                  0| 0                  0                  0|]
New Line.b56675_b56678 Phases=1 bus1=b56675.2 bus2=b56678.2 Units=km Length=0.1520952 Rmatrix=0.85376 Xmatrix=0.52809 Cmatrix=0
New Line.b56678_b56679 Phases=1 bus1=b56678.2 bus2=b56679.2 Units=km Length=0.060959998 Rmatrix=0.85376 Xmatrix=0.52809 Cmatrix=0
New Line.b56678_5993629800 Phases=1 bus1=b56678.2 bus2=5993629800.2 Units=km Length=0.060959998 Rmatrix=0.86868 Xmatrix=0.56322 Cmatrix=0
New Line.b4861_b4859 Phases=3 bus1=b4861.1.2.3 bus2=b4859.1.2.3 Units=km Length=0.056997598 Rmatrix=[0.19316            0.07075            0.07075| 0.07075            0.19316            0.07075| 0.07075            0.07075            0.19316|] Xmatrix=[0.68806            0.29312            0.29312| 0.29312            0.68806            0.29312| 0.29312            0.29312            0.68806|] Cmatrix=[0                  0                  0| 0                  0                  0| 0                  0                  0|]
New Line.b4859_b4858 Phases=3 bus1=b4859.1.2.3 bus2=b4858.1.2.3 Units=km Length=0.027127199 Rmatrix=[0.19316            0.07075            0.07075| 0.07075            0.19316            0.07075| 0.07075            0.07075            0.19316|] Xmatrix=[0.68806            0.29312            0.29312| 0.29312            0.68806            0.29312| 0.29312            0.29312            0.68806|] Cmatrix=[0                  0                  0| 0                  0                  0| 0                  0                  0|]
New Line.b10374_b41240 Phases=1 bus1=b10374.1 bus2=b41240.1 Units=km Length=0.051511198 Rmatrix=0.85376 Xmatrix=0.52809 Cmatrix=0
New Line.b10374_b41907 Phases=1 bus1=b10374.1 bus2=b41907.1 Units=km Length=0.020116799 Rmatrix=0.85376 Xmatrix=0.52809 Cmatrix=0
New Line.b41240_b23405 Phases=1 bus1=b41240.1 bus2=b23405.1 Units=km Length=0.36819839 Rmatrix=0.85376 Xmatrix=0.52809 Cmatrix=0
New Line.b55545_b55546 Phases=1 bus1=b55545.3 bus2=b55546.3 Units=km Length=0.030479999 Rmatrix=0.85376 Xmatrix=0.52809 Cmatrix=0
New Line.b18978_b18979 Phases=1 bus1=b18978.3 bus2=b18979.3 Units=km Length=0.046634399 Rmatrix=0.85376 Xmatrix=0.52809 Cmatrix=0
New Line.b18978_b40187 Phases=1 bus1=b18978.3 bus2=b40187.3 Units=km Length=0.027127199 Rmatrix=0.85376 Xmatrix=0.52809 Cmatrix=0
New Line.b18979_b18982 Phases=1 bus1=b18979.3 bus2=b18982.3 Units=km Length=0.1319784 Rmatrix=0.85376 Xmatrix=0.52809 Cmatrix=0
New Line.b4987_b4982 Phases=3 bus1=b4987.1.2.3 bus2=b4982.1.2.3 Units=km Length=0.18958559 Rmatrix=[0.19316            0.07075            0.07075| 0.07075            0.19316            0.07075| 0.07075            0.07075            0.19316|] Xmatrix=[0.68806            0.29312            0.29312| 0.29312            0.68806            0.29312| 0.29312            0.29312            0.68806|] Cmatrix=[0                  0                  0| 0                  0                  0| 0                  0                  0|]
New Line.b4982_b36166 Phases=3 bus1=b4982.1.2.3 bus2=b36166.1.2.3 Units=km Length=0.25999439 Rmatrix=[0.19316            0.07075            0.07075| 0.07075            0.19316            0.07075| 0.07075            0.07075            0.19316|] Xmatrix=[0.68806            0.29312            0.29312| 0.29312            0.68806            0.29312| 0.29312            0.29312            0.68806|] Cmatrix=[0                  0                  0| 0                  0                  0| 0                  0                  0|]
New Line.b18901_b18902 Phases=3 bus1=b18901.1.2.3 bus2=b18902.1.2.3 Units=km Length=0.038099999 Rmatrix=[0.64818            0.10262            0.10262| 0.10262            0.64818            0.10262| 0.10262            0.10262            0.64818|] Xmatrix=[0.84986            0.32397            0.32397| 0.32397            0.84986            0.32397| 0.32397            0.32397            0.84986|] Cmatrix=[0                  0                  0| 0                  0                  0| 0                  0                  0|]
New Line.b18902_b18904 Phases=3 bus1=b18902.1.2.3 bus2=b18904.1.2.3 Units=km Length=0.073151998 Rmatrix=[0.64818            0.10262            0.10262| 0.10262            0.64818            0.10262| 0.10262            0.10262            0.64818|] Xmatrix=[0.849860000001            0.32397            0.32397|        0.32397     0.849859999999            0.32397|        0.32397            0.32397            0.84986|] Cmatrix=[0                  0                  0| 0                  0                  0| 0                  0                  0|]
New Line.b2526_b2532 Phases=3 bus1=b2526.1.2.3 bus2=b2532.1.2.3 Units=km Length=0.093268797 Rmatrix=[0.19316            0.07075            0.07075| 0.07075            0.19316            0.07075| 0.07075            0.07075            0.19316|] Xmatrix=[0.68806            0.29312            0.29312| 0.29312            0.68806            0.29312| 0.29312            0.29312            0.68806|] Cmatrix=[0                  0                  0| 0                  0                  0| 0                  0                  0|]
New Line.b2532_b2547 Phases=3 bus1=b2532.1.2.3 bus2=b2547.1.2.3 Units=km Length=0.083515197 Rmatrix=[0.19316            0.07075            0.07075| 0.07075            0.19316            0.07075| 0.07075            0.07075            0.19316|] Xmatrix=[0.68806            0.29312            0.29312| 0.29312            0.68806            0.29312| 0.29312            0.29312            0.68806|] Cmatrix=[0                  0                  0| 0                  0                  0| 0                  0                  0|]
New Line.b60890_b60891 Phases=1 bus1=b60890.2 bus2=b60891.2 Units=km Length=0.048158398 Rmatrix=0.85376 Xmatrix=0.52809 Cmatrix=0
New Line.b47667_b47668 Phases=3 bus1=b47667.1.2.3 bus2=b47668.1.2.3 Units=km Length=0.060959998 Rmatrix=[0.97924            0.12548            0.12548| 0.12548            0.97924            0.12548| 0.12548            0.12548            0.97924|] Xmatrix=[ 0.8489            0.35405            0.35405| 0.35405             0.8489            0.35405| 0.35405            0.35405             0.8489|] Cmatrix=[0                  0                  0| 0                  0                  0| 0                  0                  0|]
New Line.b41462_b57845 Phases=1 bus1=b41462.3 bus2=b57845.3 Units=km Length=0.023164799 Rmatrix=0.85376 Xmatrix=0.52809 Cmatrix=0
New Line.b41462_b24506 Phases=1 bus1=b41462.3 bus2=b24506.3 Units=km Length=0.052425598 Rmatrix=0.85376 Xmatrix=0.52809 Cmatrix=0
New Line.b57845_b57846 Phases=1 bus1=b57845.3 bus2=b57846.3 Units=km Length=0.054559198 Rmatrix=0.85376 Xmatrix=0.52809 Cmatrix=0
New Line.b4896_b4891 Phases=3 bus1=b4896.1.2.3 bus2=b4891.1.2.3 Units=km Length=0.1176528 Rmatrix=[0.19316            0.07075            0.07075| 0.07075            0.19316            0.07075| 0.07075            0.07075            0.19316|] Xmatrix=[0.68806            0.29312            0.29312| 0.29312            0.68806            0.29312| 0.29312            0.29312            0.68806|] Cmatrix=[0                  0                  0| 0                  0                  0| 0                  0                  0|]
New Line.b4891_b4890 Phases=3 bus1=b4891.1.2.3 bus2=b4890.1.2.3 Units=km Length=0.034442399 Rmatrix=[0.19316            0.07075            0.07075| 0.07075            0.19316            0.07075| 0.07075            0.07075            0.19316|] Xmatrix=[0.68806            0.29312            0.29312| 0.29312            0.68806            0.29312| 0.29312            0.29312            0.68806|] Cmatrix=[0                  0                  0| 0                  0                  0| 0                  0                  0|]
New Line.b18856_b18858 Phases=3 bus1=b18856.1.2.3 bus2=b18858.1.2.3 Units=km Length=0.089611197 Rmatrix=[0.64818            0.10262            0.10262| 0.10262            0.64818            0.10262| 0.10262            0.10262            0.64818|] Xmatrix=[0.84986            0.32397            0.32397| 0.32397            0.84986            0.32397| 0.32397            0.32397            0.84986|] Cmatrix=[0                  0                  0| 0                  0                  0| 0                  0                  0|]
New Line.b18858_b18859 Phases=3 bus1=b18858.1.2.3 bus2=b18859.1.2.3 Units=km Length=0.053644798 Rmatrix=[0.64818            0.10262            0.10262| 0.10262            0.64818            0.10262| 0.10262            0.10262            0.64818|] Xmatrix=[0.84986            0.32397            0.32397| 0.32397            0.84986            0.32397| 0.32397            0.32397            0.84986|] Cmatrix=[0                  0                  0| 0                  0                  0| 0                  0                  0|]
New Line.b19064_b33451 Phases=2 bus1=b19064.1.3 bus2=b33451.1.3 Units=km Length=0.079857597 Rmatrix=[0.979473333333     0.125713333333| 0.125713333333     0.979473333333|] Xmatrix=[0.848586666667     0.320706666667| 0.320706666667     0.848586666667|] Cmatrix=[0                  0| 0                  0|]
New Line.b33451_b33052 Phases=2 bus1=b33451.1.3 bus2=b33052.1.3 Units=km Length=0.077723998 Rmatrix=[0.979473333333     0.125713333333| 0.125713333333     0.979473333333|] Xmatrix=[0.848586666667     0.320706666667| 0.320706666667     0.848586666667|] Cmatrix=[0                  0| 0                  0|]
New Line.b33451_b59974 Phases=2 bus1=b33451.1.3 bus2=b59974.1.3 Units=km Length=0.050596798 Rmatrix=[0.979473333333     0.125713333333| 0.125713333333     0.979473333333|] Xmatrix=[0.848586666666     0.320706666667| 0.320706666667     0.848586666667|] Cmatrix=[0                  0| 0                  0|]
New Line.b60403_b61746 Phases=1 bus1=b60403.2 bus2=b61746.2 Units=km Length=0.099669597 Rmatrix=0.85376 Xmatrix=0.52809 Cmatrix=0
New Line.b60403_5987528938 Phases=1 bus1=b60403.2 bus2=5987528938.2 Units=km Length=0.021031199 Rmatrix=0.85376 Xmatrix=0.52809 Cmatrix=0
New Line.b61746_g33462 Phases=1 bus1=b61746.2 bus2=g33462.2 Units=km Length=0.077723998 Rmatrix=0.85376 Xmatrix=0.52809 Cmatrix=0
New Line.b61746_b61747 Phases=1 bus1=b61746.2 bus2=b61747.2 Units=km Length=0.021640799 Rmatrix=0.85376 Xmatrix=0.52809 Cmatrix=0
New Line.b56663_b56664 Phases=1 bus1=b56663.2 bus2=b56664.2 Units=km Length=0.044500799 Rmatrix=0.85376 Xmatrix=0.52809 Cmatrix=0
New Line.b56664_b56665 Phases=1 bus1=b56664.2 bus2=b56665.2 Units=km Length=0.056083198 Rmatrix=0.85376 Xmatrix=0.52809 Cmatrix=0
New Line.b56664_5986529689 Phases=1 bus1=b56664.2 bus2=5986529689.2 Units=km Length=0.0076199998 Rmatrix=0.86868 Xmatrix=0.56322 Cmatrix=0
New Line.b39817_b39819 Phases=1 bus1=b39817.3 bus2=b39819.3 Units=km Length=0.12192 Rmatrix=0.85376 Xmatrix=0.52809 Cmatrix=0
New Line.b39817_b59582 Phases=1 bus1=b39817.3 bus2=b59582.3 Units=km Length=0.053035198 Rmatrix=0.85376 Xmatrix=0.52809 Cmatrix=0
New Line.b39819_g40318 Phases=1 bus1=b39819.3 bus2=g40318.3 Units=km Length=0.037185599 Rmatrix=0.85376 Xmatrix=0.52809 Cmatrix=0
New Line.b39819_b66281 Phases=1 bus1=b39819.3 bus2=b66281.3 Units=km Length=0.0155448 Rmatrix=0.85376 Xmatrix=0.52809 Cmatrix=0
New Line.b16708_5851228580 Phases=1 bus1=b16708.3 bus2=5851228580.3 Units=km Length=0.088391997 Rmatrix=0.86868 Xmatrix=0.56322 Cmatrix=0
New Line.b18969_b18971 Phases=1 bus1=b18969.3 bus2=b18971.3 Units=km Length=0.087172797 Rmatrix=0.85376 Xmatrix=0.52809 Cmatrix=0
New Line.b18971_b18975 Phases=1 bus1=b18971.3 bus2=b18975.3 Units=km Length=0.18775679 Rmatrix=0.85376 Xmatrix=0.52809 Cmatrix=0
New Line.g42392_5918528239 Phases=1 bus1=g42392.3 bus2=5918528239.3 Units=km Length=0.027431999 Rmatrix=0.86868 Xmatrix=0.56322 Cmatrix=0
New Line.g42392_g42393 Phases=1 bus1=g42392.3 bus2=g42393.3 Units=km Length=0.060350398 Rmatrix=0.85376 Xmatrix=0.52809 Cmatrix=0
New Line.5918528239_5920428274 Phases=1 bus1=5918528239.3 bus2=5920428274.3 Units=km Length=0.120396 Rmatrix=0.86868 Xmatrix=0.56322 Cmatrix=0
New Line.b19004_b8019 Phases=1 bus1=b19004.3 bus2=b8019.3 Units=km Length=0.1121664 Rmatrix=0.85376 Xmatrix=0.52809 Cmatrix=0
New Line.b19004_b31906 Phases=1 bus1=b19004.3 bus2=b31906.3 Units=km Length=0.060350398 Rmatrix=0.85376 Xmatrix=0.52809 Cmatrix=0
New Line.b8019_b38623 Phases=1 bus1=b8019.3 bus2=b38623.3 Units=km Length=0.068579998 Rmatrix=0.85376 Xmatrix=0.52809 Cmatrix=0
New Line.b2648_b31756 Phases=1 bus1=b2648.3 bus2=b31756.3 Units=km Length=0.18806159 Rmatrix=0.12241 Xmatrix=0.42818 Cmatrix=0
New Line.b2648_g42775 Phases=1 bus1=b2648.3 bus2=g42775.3 Units=km Length=0.022859999 Rmatrix=0.12241 Xmatrix=0.42818 Cmatrix=0
New Line.b31756_b22157 Phases=1 bus1=b31756.3 bus2=b22157.3 Units=km Length=0.048158398 Rmatrix=0.85376 Xmatrix=0.52809 Cmatrix=0
New Line.b60842_b60843 Phases=1 bus1=b60842.3 bus2=b60843.3 Units=km Length=0.048158398 Rmatrix=0.85376 Xmatrix=0.52809 Cmatrix=0
New Line.b18997_6095529388 Phases=1 bus1=b18997.3 bus2=6095529388.3 Units=km Length=0.026212799 Rmatrix=0.86868 Xmatrix=0.56322 Cmatrix=0
New Line.b18997_b18998 Phases=1 bus1=b18997.3 bus2=b18998.3 Units=km Length=0.047853598 Rmatrix=0.85376 Xmatrix=0.52809 Cmatrix=0
New Line.6095529388_6096329368 Phases=1 bus1=6095529388.3 bus2=6096329368.3 Units=km Length=0.048767998 Rmatrix=0.86868 Xmatrix=0.56322 Cmatrix=0
New Line.b26169_b44432 Phases=1 bus1=b26169.3 bus2=b44432.3 Units=km Length=0.1027176 Rmatrix=0.85376 Xmatrix=0.52809 Cmatrix=0
New Line.b26169_b26202 Phases=1 bus1=b26169.3 bus2=b26202.3 Units=km Length=0.042367199 Rmatrix=0.85376 Xmatrix=0.52809 Cmatrix=0
New Line.b44432_b26171 Phases=1 bus1=b44432.3 bus2=b26171.3 Units=km Length=0.050291998 Rmatrix=0.85376 Xmatrix=0.52809 Cmatrix=0
New Line.b52582_b52584 Phases=1 bus1=b52582.2 bus2=b52584.2 Units=km Length=0.16245839 Rmatrix=0.85376 Xmatrix=0.52809 Cmatrix=0
New Line.b52584_b52585 Phases=1 bus1=b52584.2 bus2=b52585.2 Units=km Length=0.1008888 Rmatrix=0.85376 Xmatrix=0.52809 Cmatrix=0
New Line.b24504_b41463 Phases=1 bus1=b24504.3 bus2=b41463.3 Units=km Length=0.051206398 Rmatrix=0.85376 Xmatrix=0.52809 Cmatrix=0
New Line.b24504_b55237 Phases=1 bus1=b24504.3 bus2=b55237.3 Units=km Length=0.043281599 Rmatrix=0.85376 Xmatrix=0.52809 Cmatrix=0
New Line.b41463_b24505 Phases=1 bus1=b41463.3 bus2=b24505.3 Units=km Length=0.052425598 Rmatrix=0.85376 Xmatrix=0.52809 Cmatrix=0
New Line.5906628649_5905728658 Phases=1 bus1=5906628649.2 bus2=5905728658.2 Units=km Length=0.038099999 Rmatrix=0.86868 Xmatrix=0.56322 Cmatrix=0
New Line.b15845_b24227 Phases=1 bus1=b15845.3 bus2=b24227.3 Units=km Length=0.044195999 Rmatrix=0.85376 Xmatrix=0.52809 Cmatrix=0
New Line.b15845_b66579 Phases=1 bus1=b15845.3 bus2=b66579.3 Units=km Length=0.0131064 Rmatrix=0.85376 Xmatrix=0.52809 Cmatrix=0
New Line.b24227_b24231 Phases=1 bus1=b24227.3 bus2=b24231.3 Units=km Length=0.37490399 Rmatrix=0.85376 Xmatrix=0.52809 Cmatrix=0
New Line.b18882_b18884 Phases=3 bus1=b18882.1.2.3 bus2=b18884.1.2.3 Units=km Length=0.091439997 Rmatrix=[0.64818            0.10262            0.10262| 0.10262            0.64818            0.10262| 0.10262            0.10262            0.64818|] Xmatrix=[0.84986            0.32397            0.32397| 0.32397     0.849859999999            0.32397| 0.32397            0.32397            0.84986|] Cmatrix=[0                  0                  0| 0                  0                  0| 0                  0                  0|]
New Line.b18884_b18886 Phases=3 bus1=b18884.1.2.3 bus2=b18886.1.2.3 Units=km Length=0.088391997 Rmatrix=[0.64818            0.10262            0.10262| 0.10262            0.64818            0.10262| 0.10262            0.10262            0.64818|] Xmatrix=[0.84986            0.32397            0.32397| 0.32397            0.84986            0.32397| 0.32397            0.32397            0.84986|] Cmatrix=[0                  0                  0| 0                  0                  0| 0                  0                  0|]
New Line.b18884_b57590 Phases=1 bus1=b18884.2 bus2=b57590.2 Units=km Length=0.0143256 Rmatrix=0.85376 Xmatrix=0.52809 Cmatrix=0
New Line.b13932_b15821 Phases=1 bus1=b13932.3 bus2=b15821.3 Units=km Length=0.1024128 Rmatrix=0.85376 Xmatrix=0.52809 Cmatrix=0
New Line.b15821_b15823 Phases=1 bus1=b15821.3 bus2=b15823.3 Units=km Length=0.17678399 Rmatrix=0.85376 Xmatrix=0.52809 Cmatrix=0
New Line.b4888_b388 Phases=3 bus1=b4888.1.2.3 bus2=b388.1.2.3 Units=km Length=0.035661599 Rmatrix=[0.97924            0.12548            0.12548| 0.12548            0.97924            0.12548| 0.12548            0.12548     0.979240000001|] Xmatrix=[ 0.8489            0.35405            0.35405| 0.35405             0.8489            0.35405| 0.35405            0.35405     0.848900000001|] Cmatrix=[0                  0                  0| 0                  0                  0| 0                  0                  0|]
New Line.b4888_b4885 Phases=3 bus1=b4888.1.2.3 bus2=b4885.1.2.3 Units=km Length=0.080467197 Rmatrix=[0.19316            0.07075            0.07075| 0.07075            0.19316            0.07075| 0.07075            0.07075            0.19316|] Xmatrix=[0.68806            0.29312            0.29312| 0.29312            0.68806            0.29312| 0.29312            0.29312            0.68806|] Cmatrix=[0                  0                  0| 0                  0                  0| 0                  0                  0|]
New Line.b388_b41544 Phases=3 bus1=b388.1.2.3 bus2=b41544.1.2.3 Units=km Length=0.040233599 Rmatrix=[0.97924            0.12548            0.12548| 0.12548            0.97924            0.12548| 0.12548            0.12548            0.97924|] Xmatrix=[ 0.8489            0.35405            0.35405| 0.35405             0.8489            0.35405| 0.35405            0.35405             0.8489|] Cmatrix=[0                  0                  0| 0                  0                  0| 0                  0                  0|]
New Line.b18936_b18938 Phases=3 bus1=b18936.1.2.3 bus2=b18938.1.2.3 Units=km Length=0.091439997 Rmatrix=[0.97924            0.12548            0.12548| 0.12548            0.97924            0.12548| 0.12548            0.12548            0.97924|] Xmatrix=[ 0.8489            0.35405            0.35405| 0.35405             0.8489            0.35405| 0.35405            0.35405     0.848899999999|] Cmatrix=[0                  0                  0| 0                  0                  0| 0                  0                  0|]
New Line.b18938_6022828946 Phases=3 bus1=b18938.1.2.3 bus2=6022828946.1.2.3 Units=km Length=0.071627998 Rmatrix=[0.97924            0.12548            0.12548| 0.12548            0.97924            0.12548| 0.12548            0.12548            0.97924|] Xmatrix=[0.848899999999            0.35405     0.354049999999|        0.35405             0.8489            0.35405| 0.354049999999            0.35405     0.848900000001|] Cmatrix=[0                  0                  0| 0                  0                  0| 0                  0                  0|]
New Line.b18938_b61253 Phases=1 bus1=b18938.3 bus2=b61253.3 Units=km Length=0.023164799 Rmatrix=0.85376 Xmatrix=0.52809 Cmatrix=0
New Line.b19046_b47665 Phases=3 bus1=b19046.1.2.3 bus2=b47665.1.2.3 Units=km Length=0.01524 Rmatrix=[0.97924            0.12548            0.12548| 0.12548            0.97924            0.12548| 0.12548            0.12548            0.97924|] Xmatrix=[ 0.8489            0.35405            0.35405| 0.35405             0.8489            0.35405| 0.35405            0.35405             0.8489|] Cmatrix=[0                  0                  0| 0                  0                  0| 0                  0                  0|]
New Line.b47665_b47666 Phases=3 bus1=b47665.1.2.3 bus2=b47666.1.2.3 Units=km Length=0.061264798 Rmatrix=[0.97924            0.12548            0.12548| 0.12548            0.97924            0.12548| 0.12548            0.12548            0.97924|] Xmatrix=[ 0.8489            0.35405            0.35405| 0.35405             0.8489            0.35405| 0.35405            0.35405             0.8489|] Cmatrix=[0                  0                  0| 0                  0                  0| 0                  0                  0|]
New Line.b60928_b61248 Phases=1 bus1=b60928.3 bus2=b61248.3 Units=km Length=0.018897599 Rmatrix=0.85376 Xmatrix=0.52809 Cmatrix=0
New Line.b60928_b60930 Phases=1 bus1=b60928.3 bus2=b60930.3 Units=km Length=0.057911998 Rmatrix=0.85376 Xmatrix=0.52809 Cmatrix=0
New Line.b61248_b61249 Phases=1 bus1=b61248.3 bus2=b61249.3 Units=km Length=0.045110399 Rmatrix=0.85376 Xmatrix=0.52809 Cmatrix=0
New Line.b18849_b18850 Phases=3 bus1=b18849.1.2.3 bus2=b18850.1.2.3 Units=km Length=0.044195998 Rmatrix=[0.64818            0.10262            0.10262| 0.10262            0.64818            0.10262| 0.10262            0.10262            0.64818|] Xmatrix=[0.84986            0.32397            0.32397| 0.32397            0.84986            0.32397| 0.32397            0.32397            0.84986|] Cmatrix=[0                  0                  0| 0                  0                  0| 0                  0                  0|]
New Line.b18850_b18852 Phases=3 bus1=b18850.1.2.3 bus2=b18852.1.2.3 Units=km Length=0.092659197 Rmatrix=[0.64818            0.10262            0.10262| 0.10262            0.64818            0.10262| 0.10262            0.10262            0.64818|] Xmatrix=[0.84986            0.32397            0.32397| 0.32397            0.84986            0.32397| 0.32397            0.32397            0.84986|] Cmatrix=[0                  0                  0| 0                  0                  0| 0                  0                  0|]
New Line.b4963_b4962 Phases=3 bus1=b4963.1.2.3 bus2=b4962.1.2.3 Units=km Length=0.064007998 Rmatrix=[0.19316            0.07075            0.07075| 0.07075            0.19316            0.07075| 0.07075            0.07075            0.19316|] Xmatrix=[0.68806            0.29312            0.29312| 0.29312            0.68806            0.29312| 0.29312            0.29312            0.68806|] Cmatrix=[0                  0                  0| 0                  0                  0| 0                  0                  0|]
New Line.b4962_5880927872 Phases=3 bus1=b4962.1.2.3 bus2=5880927872.1.2.3 Units=km Length=0.039319199 Rmatrix=[0.19316            0.07075            0.07075| 0.07075            0.19316            0.07075| 0.07075            0.07075            0.19316|] Xmatrix=[0.68806            0.29312            0.29312| 0.29312            0.68806            0.29312| 0.29312            0.29312            0.68806|] Cmatrix=[0                  0                  0| 0                  0                  0| 0                  0                  0|]
New Line.b18865reg_b18866 Phases=3 bus1=b18865reg.1.2.3 bus2=b18866.1.2.3 Units=km Length=0.045719998 Rmatrix=[       0.64818     0.102619999999            0.10262| 0.102619999999     0.648180000002     0.102620000001|        0.10262     0.102620000001            0.64818|] Xmatrix=[0.849860000003     0.323969999999            0.32397| 0.323969999999     0.849859999998            0.32397|        0.32397            0.32397     0.849860000001|] Cmatrix=[0                  0                  0| 0                  0                  0| 0                  0                  0|]
New Line.b18866_b18868 Phases=3 bus1=b18866.1.2.3 bus2=b18868.1.2.3 Units=km Length=0.080467197 Rmatrix=[0.64818            0.10262            0.10262| 0.10262            0.64818            0.10262| 0.10262            0.10262            0.64818|] Xmatrix=[0.84986            0.32397            0.32397| 0.32397            0.84986            0.32397| 0.32397            0.32397            0.84986|] Cmatrix=[0                  0                  0| 0                  0                  0| 0                  0                  0|]
New Line.b19018_6060229368 Phases=1 bus1=b19018.2 bus2=6060229368.2 Units=km Length=0.20360639 Rmatrix=0.5716 Xmatrix=0.39488 Cmatrix=0
New Line.b19018_b19019 Phases=2 bus1=b19018.1.2 bus2=b19019.1.2 Units=km Length=0.045415199 Rmatrix=[0.979473333334     0.125713333333| 0.125713333333     0.979473333333|] Xmatrix=[0.848586666666     0.320706666667| 0.320706666667     0.848586666667|] Cmatrix=[0                  0| 0                  0|]
New Line.b46976_b52162 Phases=1 bus1=b46976.1 bus2=b52162.1 Units=km Length=0.069799198 Rmatrix=0.85376 Xmatrix=0.52809 Cmatrix=0
New Line.b46976_b56472 Phases=1 bus1=b46976.1 bus2=b56472.1 Units=km Length=0.052425598 Rmatrix=0.85376 Xmatrix=0.52809 Cmatrix=0
New Line.b46976_b46977 Phases=1 bus1=b46976.1 bus2=b46977.1 Units=km Length=0.060959998 Rmatrix=0.85376 Xmatrix=0.52809 Cmatrix=0
New Line.b52162_b52165 Phases=1 bus1=b52162.1 bus2=b52165.1 Units=km Length=0.1411224 Rmatrix=0.85376 Xmatrix=0.52809 Cmatrix=0
New Line.g43336_g43337 Phases=1 bus1=g43336.1 bus2=g43337.1 Units=km Length=0.035966399 Rmatrix=0.86868 Xmatrix=0.56322 Cmatrix=0
New Line.b4579_b66283 Phases=3 bus1=b4579.1.2.3 bus2=b66283.1.2.3 Units=km Length=0.22189439 Rmatrix=[0.66968            0.12548            0.12548| 0.12548            0.66968            0.12548| 0.12548            0.12548            0.66968|] Xmatrix=[0.828480000001            0.35406            0.35406|        0.35406            0.82848            0.35406|        0.35406            0.35406            0.82848|] Cmatrix=[0                  0                  0| 0                  0                  0| 0                  0                  0|]
New Line.b4579_b44696 Phases=1 bus1=b4579.1 bus2=b44696.1 Units=km Length=0.029260799 Rmatrix=0.85376 Xmatrix=0.52809 Cmatrix=0
New Line.b66283_b17217 Phases=3 bus1=b66283.1.2.3 bus2=b17217.1.2.3 Units=km Length=0.082295997 Rmatrix=[0.66968            0.12548            0.12548| 0.12548            0.66968            0.12548| 0.12548            0.12548            0.66968|] Xmatrix=[0.82848            0.35406            0.35406| 0.35406            0.82848            0.35406| 0.35406            0.35406            0.82848|] Cmatrix=[0                  0                  0| 0                  0                  0| 0                  0                  0|]
New Line.b66283_b66284 Phases=1 bus1=b66283.3 bus2=b66284.3 Units=km Length=0.021945599 Rmatrix=0.85376 Xmatrix=0.52809 Cmatrix=0
New Line.b18976_b18977 Phases=1 bus1=b18976.3 bus2=b18977.3 Units=km Length=0.037795199 Rmatrix=0.85376 Xmatrix=0.52809 Cmatrix=0
New Line.b18976_b28483 Phases=1 bus1=b18976.3 bus2=b28483.3 Units=km Length=0.024688799 Rmatrix=0.85376 Xmatrix=0.52809 Cmatrix=0
New Line.b18977_b18978 Phases=1 bus1=b18977.3 bus2=b18978.3 Units=km Length=0.047243998 Rmatrix=0.85376 Xmatrix=0.52809 Cmatrix=0
New Line.b18837_b18839 Phases=3 bus1=b18837.1.2.3 bus2=b18839.1.2.3 Units=km Length=0.091439997 Rmatrix=[0.64818            0.10262            0.10262| 0.10262            0.64818            0.10262| 0.10262            0.10262            0.64818|] Xmatrix=[0.84986            0.32397            0.32397| 0.32397            0.84986            0.32397| 0.32397            0.32397            0.84986|] Cmatrix=[0                  0                  0| 0                  0                  0| 0                  0                  0|]
New Line.b18837_b63368 Phases=1 bus1=b18837.3 bus2=b63368.3 Units=km Length=0.0115824 Rmatrix=0.2734 Xmatrix=0.48069 Cmatrix=0
New Line.b18839_b18840 Phases=3 bus1=b18839.1.2.3 bus2=b18840.1.2.3 Units=km Length=0.064007998 Rmatrix=[0.64818            0.10262            0.10262| 0.10262            0.64818            0.10262| 0.10262            0.10262            0.64818|] Xmatrix=[0.84986            0.32397            0.32397| 0.32397            0.84986            0.32397| 0.32397            0.32397            0.84986|] Cmatrix=[0                  0                  0| 0                  0                  0| 0                  0                  0|]
New Line.b46250_b46251 Phases=1 bus1=b46250.3 bus2=b46251.3 Units=km Length=0.045110399 Rmatrix=0.85376 Xmatrix=0.52809 Cmatrix=0
New Line.b46251_b46252 Phases=1 bus1=b46251.3 bus2=b46252.3 Units=km Length=0.037490399 Rmatrix=0.85376 Xmatrix=0.52809 Cmatrix=0
New Line.b18926_b60755 Phases=1 bus1=b18926.3 bus2=b60755.3 Units=km Length=0.027431999 Rmatrix=0.85376 Xmatrix=0.52809 Cmatrix=0
New Line.b18926_b18928 Phases=3 bus1=b18926.1.2.3 bus2=b18928.1.2.3 Units=km Length=0.091439997 Rmatrix=[       0.97924            0.12548     0.125479999999|        0.12548            0.97924     0.125479999999| 0.125479999999     0.125479999999     0.979239999998|] Xmatrix=[ 0.8489            0.35405            0.35405| 0.35405             0.8489            0.35405| 0.35405            0.35405     0.848900000002|] Cmatrix=[0                  0                  0| 0                  0                  0| 0                  0                  0|]
New Line.b60755_b60757 Phases=1 bus1=b60755.3 bus2=b60757.3 Units=km Length=0.077114398 Rmatrix=0.85376 Xmatrix=0.52809 Cmatrix=0
New Line.b19040_b19042 Phases=3 bus1=b19040.1.2.3 bus2=b19042.1.2.3 Units=km Length=0.074980798 Rmatrix=[0.97924            0.12548            0.12548| 0.12548            0.97924            0.12548| 0.12548            0.12548            0.97924|] Xmatrix=[ 0.8489            0.35405            0.35405| 0.35405             0.8489            0.35405| 0.35405            0.35405     0.848900000001|] Cmatrix=[0                  0                  0| 0                  0                  0| 0                  0                  0|]
New Line.b19042_b19043 Phases=3 bus1=b19042.1.2.3 bus2=b19043.1.2.3 Units=km Length=0.044195999 Rmatrix=[0.97924            0.12548            0.12548| 0.12548            0.97924            0.12548| 0.12548            0.12548            0.97924|] Xmatrix=[ 0.8489            0.35405            0.35405| 0.35405     0.848900000001            0.35405| 0.35405            0.35405             0.8489|] Cmatrix=[0                  0                  0| 0                  0                  0| 0                  0                  0|]
New Line.b19042_b41084 Phases=2 bus1=b19042.2.3 bus2=b41084.2.3 Units=km Length=0.028346399 Rmatrix=[0.979473333333     0.125713333333| 0.125713333333     0.979473333333|] Xmatrix=[0.848586666667     0.320706666667| 0.320706666667     0.848586666667|] Cmatrix=[0                  0| 0                  0|]
New Line.b18924_b18925 Phases=3 bus1=b18924.1.2.3 bus2=b18925.1.2.3 Units=km Length=0.044195999 Rmatrix=[0.97924            0.12548            0.12548| 0.12548            0.97924            0.12548| 0.12548            0.12548            0.97924|] Xmatrix=[ 0.8489            0.35405            0.35405| 0.35405             0.8489            0.35405| 0.35405            0.35405             0.8489|] Cmatrix=[0                  0                  0| 0                  0                  0| 0                  0                  0|]
New Line.b18925_b18926 Phases=3 bus1=b18925.1.2.3 bus2=b18926.1.2.3 Units=km Length=0.047243998 Rmatrix=[0.97924            0.12548            0.12548| 0.12548            0.97924            0.12548| 0.12548            0.12548            0.97924|] Xmatrix=[        0.8489            0.35405     0.354050000001|        0.35405             0.8489     0.354050000001| 0.354050000001     0.354050000001     0.848900000002|] Cmatrix=[0                  0                  0| 0                  0                  0| 0                  0                  0|]
New Line.b18925_b63684 Phases=1 bus1=b18925.3 bus2=b63684.3 Units=km Length=0.016154399 Rmatrix=0.85376 Xmatrix=0.52809 Cmatrix=0
New Line.b22561_b22569 Phases=1 bus1=b22561.1 bus2=b22569.1 Units=km Length=0.1490472 Rmatrix=0.12241 Xmatrix=0.42818 Cmatrix=0
New Line.b22569_b22564 Phases=1 bus1=b22569.1 bus2=b22564.1 Units=km Length=0.069799198 Rmatrix=0.12241 Xmatrix=0.42818 Cmatrix=0
New Line.b4591_b4588 Phases=3 bus1=b4591.1.2.3 bus2=b4588.1.2.3 Units=km Length=0.067665598 Rmatrix=[0.66968            0.12548            0.12548| 0.12548            0.66968            0.12548| 0.12548            0.12548            0.66968|] Xmatrix=[0.82848            0.35406            0.35406| 0.35406            0.82848            0.35406| 0.35406            0.35406            0.82848|] Cmatrix=[0                  0                  0| 0                  0                  0| 0                  0                  0|]
New Line.b4588_b4587 Phases=3 bus1=b4588.1.2.3 bus2=b4587.1.2.3 Units=km Length=0.032308799 Rmatrix=[0.66968            0.12548            0.12548| 0.12548            0.66968            0.12548| 0.12548            0.12548            0.66968|] Xmatrix=[0.82848            0.35406            0.35406| 0.35406            0.82848            0.35406| 0.35406            0.35406            0.82848|] Cmatrix=[0                  0                  0| 0                  0                  0| 0                  0                  0|]
New Line.b4588_b10925 Phases=1 bus1=b4588.3 bus2=b10925.3 Units=km Length=0.047853598 Rmatrix=0.5442 Xmatrix=0.50766 Cmatrix=0
New Line.b23879_b23880 Phases=1 bus1=b23879.3 bus2=b23880.3 Units=km Length=0.082600797 Rmatrix=0.85376 Xmatrix=0.52809 Cmatrix=0
New Line.b23880_b23884 Phases=1 bus1=b23880.3 bus2=b23884.3 Units=km Length=0.28955999 Rmatrix=0.85376 Xmatrix=0.52809 Cmatrix=0
New Line.b23880_b26279 Phases=1 bus1=b23880.3 bus2=b26279.3 Units=km Length=0.17129759 Rmatrix=0.85376 Xmatrix=0.52809 Cmatrix=0
New Line.b9952_b3066 Phases=2 bus1=b9952.2.3 bus2=b3066.2.3 Units=km Length=0.091135197 Rmatrix=[0.6699             0.1257| 0.1257             0.6699|] Xmatrix=[0.828133333333     0.320683333333| 0.320683333333     0.828133333333|] Cmatrix=[0                  0| 0                  0|]
New Line.b3066_b3065 Phases=2 bus1=b3066.2.3 bus2=b3065.2.3 Units=km Length=0.20634959 Rmatrix=[0.6699             0.1257| 0.1257             0.6699|] Xmatrix=[0.828133333333     0.320683333333| 0.320683333333     0.828133333333|] Cmatrix=[0                  0| 0                  0|]
New Line.b60407_b60404 Phases=1 bus1=b60407.2 bus2=b60404.2 Units=km Length=0.18348959 Rmatrix=0.85376 Xmatrix=0.52809 Cmatrix=0
New Line.b60407_b61687 Phases=1 bus1=b60407.2 bus2=b61687.2 Units=km Length=0.024383999 Rmatrix=0.85376 Xmatrix=0.52809 Cmatrix=0
New Line.b60404_b60403 Phases=1 bus1=b60404.2 bus2=b60403.2 Units=km Length=0.045415199 Rmatrix=0.85376 Xmatrix=0.52809 Cmatrix=0
New Line.b60404_b61292 Phases=1 bus1=b60404.2 bus2=b61292.2 Units=km Length=0.030479999 Rmatrix=0.85376 Xmatrix=0.52809 Cmatrix=0
New Line.b13630_b5199 Phases=3 bus1=b13630.1.2.3 bus2=b5199.1.2.3 Units=km Length=0.038099999 Rmatrix=[ 0.167496666667    0.0450866666667    0.0450866666667| 0.0450866666667     0.167496666667    0.0450866666667| 0.0450866666667    0.0450866666667     0.167496666667|] Xmatrix=[0.659673333333     0.269913333333     0.269913333333| 0.269913333333     0.659673333333     0.269913333333| 0.269913333333     0.269913333333     0.659673333333|] Cmatrix=[0                  0                  0| 0                  0                  0| 0                  0                  0|]
New Line.b5199_b13629 Phases=3 bus1=b5199.1.2.3 bus2=b13629.1.2.3 Units=km Length=0.044195999 Rmatrix=[ 0.167496666667    0.0450866666667    0.0450866666667| 0.0450866666667     0.167496666667    0.0450866666667| 0.0450866666667    0.0450866666667     0.167496666667|] Xmatrix=[0.659673333333     0.269913333333     0.269913333333| 0.269913333333     0.659673333333     0.269913333333| 0.269913333333     0.269913333333     0.659673333333|] Cmatrix=[0                  0                  0| 0                  0                  0| 0                  0                  0|]
New Line.b63363_b63365 Phases=1 bus1=b63363.2 bus2=b63365.2 Units=km Length=0.064617598 Rmatrix=0.85376 Xmatrix=0.52809 Cmatrix=0
New Line.b26202_b26203 Phases=1 bus1=b26202.3 bus2=b26203.3 Units=km Length=0.046024799 Rmatrix=0.85376 Xmatrix=0.52809 Cmatrix=0
New Line.b4824_b18823 Phases=3 bus1=b4824.1.2.3 bus2=b18823.1.2.3 Units=km Length=0.012192 Rmatrix=[0.991253333333     0.122573333333     0.122573333333| 0.122573333333     0.991253333334     0.122573333333| 0.122573333333     0.122573333333     0.991253333333|] Xmatrix=[0.886760000001            0.35677            0.35677|        0.35677            0.88676            0.35677|        0.35677            0.35677            0.88676|] Cmatrix=[0                  0                  0| 0                  0                  0| 0                  0                  0|]
New Line.b4824_b4825 Phases=3 bus1=b4824.1.2.3 bus2=b4825.1.2.3 Units=km Length=0.041452799 Rmatrix=[0.225026666667     0.102616666667     0.102616666667| 0.102616666667     0.225026666667     0.102616666667| 0.102616666667     0.102616666667     0.225026666667|] Xmatrix=[0.718893333334     0.323953333333     0.323953333334| 0.323953333333     0.718893333332     0.323953333333| 0.323953333334     0.323953333333     0.718893333333|] Cmatrix=[0                  0                  0| 0                  0                  0| 0                  0                  0|]
New Line.b18823_5851028310 Phases=3 bus1=b18823.1.2.3 bus2=5851028310.1.2.3 Units=km Length=0.083819997 Rmatrix=[0.748333333333     0.176733333333     0.176733333333| 0.176733333333     0.748333333333     0.176733333333| 0.176733333333     0.176733333333     0.748333333333|] Xmatrix=[         0.40418   0.00929999999989   0.00930000000002| 0.00929999999989            0.40418             0.0093| 0.00930000000002             0.0093            0.40418|] Cmatrix=[0                  0                  0| 0                  0                  0| 0                  0                  0|]
New Line.b61253_b61252 Phases=1 bus1=b61253.3 bus2=b61252.3 Units=km Length=0.046024799 Rmatrix=0.85376 Xmatrix=0.52809 Cmatrix=0
New Line.b23868_b23869 Phases=1 bus1=b23868.3 bus2=b23869.3 Units=km Length=0.076199998 Rmatrix=0.85376 Xmatrix=0.52809 Cmatrix=0
New Line.b23869_b23870 Phases=1 bus1=b23869.3 bus2=b23870.3 Units=km Length=0.077114398 Rmatrix=0.85376 Xmatrix=0.52809 Cmatrix=0
New Line.b2547_b56446 Phases=1 bus1=b2547.1 bus2=b56446.1 Units=km Length=0.024383999 Rmatrix=0.12241 Xmatrix=0.42818 Cmatrix=0
New Line.b2547_b2630 Phases=3 bus1=b2547.1.2.3 bus2=b2630.1.2.3 Units=km Length=0.24749759 Rmatrix=[ 0.193160000001    0.0707500000005    0.0707500000004| 0.0707500000005            0.19316    0.0707500000002| 0.0707500000004    0.0707500000002            0.19316|] Xmatrix=[0.688059999995     0.293119999998     0.293119999998| 0.293119999998     0.688059999999     0.293119999999| 0.293119999998     0.293119999999     0.688059999999|] Cmatrix=[0                  0                  0| 0                  0                  0| 0                  0                  0|]
New Line.b2547_b59351 Phases=2 bus1=b2547.1.3 bus2=b59351.1.3 Units=km Length=0.022555199 Rmatrix=[0.19326            0.07085| 0.07085            0.19326|] Xmatrix=[0.687546666667     0.259576666667| 0.259576666667     0.687546666667|] Cmatrix=[0                  0| 0                  0|]
New Line.6039329105_6040429119 Phases=1 bus1=6039329105.3 bus2=6040429119.3 Units=km Length=0.053339998 Rmatrix=0.86868 Xmatrix=0.56322 Cmatrix=0
New Line.6039329105_6038829112 Phases=1 bus1=6039329105.3 bus2=6038829112.3 Units=km Length=0.026212799 Rmatrix=0.5716 Xmatrix=0.39488 Cmatrix=0
New Line.b43427_b43429 Phases=2 bus1=b43427.1.2 bus2=b43429.1.2 Units=km Length=0.072847198 Rmatrix=[0.979473333333     0.125713333332| 0.125713333332     0.979473333329|] Xmatrix=[0.848586666666     0.320706666667| 0.320706666667     0.848586666668|] Cmatrix=[0                  0| 0                  0|]
New Line.b43427_g43678 Phases=1 bus1=b43427.2 bus2=g43678.2 Units=km Length=0.021335999 Rmatrix=0.85376 Xmatrix=0.52809 Cmatrix=0
New Line.b43429_b43430 Phases=2 bus1=b43429.1.2 bus2=b43430.1.2 Units=km Length=0.073151998 Rmatrix=[0.979473333333     0.125713333333| 0.125713333333     0.979473333333|] Xmatrix=[0.848586666667     0.320706666667| 0.320706666667     0.848586666667|] Cmatrix=[0                  0| 0                  0|]
New Line.b43429_b55313 Phases=1 bus1=b43429.2 bus2=b55313.2 Units=km Length=0.030784799 Rmatrix=0.85376 Xmatrix=0.52809 Cmatrix=0
New Line.b43429_b60963 Phases=1 bus1=b43429.2 bus2=b60963.2 Units=km Length=0.0124968 Rmatrix=0.85376 Xmatrix=0.52809 Cmatrix=0
New Line.b19181_b19183 Phases=3 bus1=b19181.1.2.3 bus2=b19183.1.2.3 Units=km Length=0.064617598 Rmatrix=[        0.19316    0.0707500000001            0.07075| 0.0707500000001            0.19316            0.07075|         0.07075            0.07075            0.19316|] Xmatrix=[0.68806            0.29312            0.29312| 0.29312            0.68806            0.29312| 0.29312            0.29312            0.68806|] Cmatrix=[0                  0                  0| 0                  0                  0| 0                  0                  0|]
New Line.b19183_b8595 Phases=3 bus1=b19183.1.2.3 bus2=b8595.1.2.3 Units=km Length=0.26121359 Rmatrix=[        0.19316    0.0707500000001    0.0707499999999| 0.0707500000001            0.19316    0.0707500000001| 0.0707499999999    0.0707500000001            0.19316|] Xmatrix=[0.68806            0.29312            0.29312| 0.29312            0.68806            0.29312| 0.29312            0.29312            0.68806|] Cmatrix=[0                  0                  0| 0                  0                  0| 0                  0                  0|]
New Line.b19183_g40331 Phases=3 bus1=b19183.1.2.3 bus2=g40331.1.2.3 Units=km Length=0.036271199 Rmatrix=[0.97924            0.12548            0.12548| 0.12548            0.97924            0.12548| 0.12548            0.12548            0.97924|] Xmatrix=[0.848899999999            0.35405            0.35405|        0.35405             0.8489            0.35405|        0.35405            0.35405             0.8489|] Cmatrix=[0                  0                  0| 0                  0                  0| 0                  0                  0|]
New Line.b19183_b38713 Phases=1 bus1=b19183.2 bus2=b38713.2 Units=km Length=0.036575999 Rmatrix=0.85376 Xmatrix=0.52809 Cmatrix=0
New Line.g36581_5992128369 Phases=1 bus1=g36581.3 bus2=5992128369.3 Units=km Length=0.073151998 Rmatrix=0.86868 Xmatrix=0.56322 Cmatrix=0
New Line.5992128369_5988528387 Phases=1 bus1=5992128369.3 bus2=5988528387.3 Units=km Length=0.12192 Rmatrix=0.5716 Xmatrix=0.39488 Cmatrix=0
New Line.b18982_b18986 Phases=1 bus1=b18982.3 bus2=b18986.3 Units=km Length=0.17983199 Rmatrix=0.85376 Xmatrix=0.52809 Cmatrix=0
New Line.b18986_b18987 Phases=1 bus1=b18986.3 bus2=b18987.3 Units=km Length=0.044805599 Rmatrix=0.85376 Xmatrix=0.52809 Cmatrix=0
New Line.b8594_b13651 Phases=3 bus1=b8594.1.2.3 bus2=b13651.1.2.3 Units=km Length=0.051815998 Rmatrix=[0.24789            0.12548            0.12548| 0.12548            0.24789            0.12548| 0.12548            0.12548            0.24789|] Xmatrix=[0.748993333333     0.354053333333     0.354053333333| 0.354053333333     0.748993333333     0.354053333333| 0.354053333333     0.354053333333     0.748993333333|] Cmatrix=[0                  0                  0| 0                  0                  0| 0                  0                  0|]
New Line.b13651_b13649 Phases=3 bus1=b13651.1.2.3 bus2=b13649.1.2.3 Units=km Length=0.089915997 Rmatrix=[0.225026666667     0.102616666667     0.102616666667| 0.102616666667     0.225026666667     0.102616666667| 0.102616666667     0.102616666667     0.225026666667|] Xmatrix=[0.718893333334     0.323953333333     0.323953333333| 0.323953333333     0.718893333333     0.323953333333| 0.323953333333     0.323953333333     0.718893333334|] Cmatrix=[0                  0                  0| 0                  0                  0| 0                  0                  0|]
New Line.6031828869_6034528885 Phases=1 bus1=6031828869.3 bus2=6034528885.3 Units=km Length=0.094792797 Rmatrix=0.86868 Xmatrix=0.56322 Cmatrix=0
New Line.6034528885_6034628876 Phases=1 bus1=6034528885.3 bus2=6034628876.3 Units=km Length=0.027431999 Rmatrix=0.86868 Xmatrix=0.56322 Cmatrix=0
New Line.6034528885_6034528888 Phases=1 bus1=6034528885.3 bus2=6034528888.3 Units=km Length=0.0091439997 Rmatrix=0.86868 Xmatrix=0.56322 Cmatrix=0
New Line.b37083_b62634 Phases=1 bus1=b37083.1 bus2=b62634.1 Units=km Length=0.024079199 Rmatrix=0.86868 Xmatrix=0.56322 Cmatrix=0
New Line.b37083_5834128538 Phases=3 bus1=b37083.1.2.3 bus2=5834128538.1.2.3 Units=km Length=0.025603199 Rmatrix=[0.97924            0.12548            0.12548| 0.12548            0.97924            0.12548| 0.12548            0.12548            0.97924|] Xmatrix=[ 0.8489            0.35405            0.35405| 0.35405             0.8489            0.35405| 0.35405            0.35405             0.8489|] Cmatrix=[0                  0                  0| 0                  0                  0| 0                  0                  0|]
...
New Transformer.SubXfmr Phases=3 Windings=2 Buses=[S LS_Bus] Conns=[wye wye] kVs=[68.8        13.09] kVAs=[16000  16000] XHL=11.63 %Noloadloss=0 %imag=0 Ppm_Antifloat=5 sub=y NumTaps=16 Wdg=1 %R=0.596 Wdg=2 %R=0.596
New Transformer.B13552_1A Phases=1 XHL=1.5158 %Loadloss=0.7221 %Noloadloss=0 %imag=0 NormHKVA=40 EmergHKVA=56 Wdg=1 Bus=B13552.1 kV=7.2 kVA=40 Wdg=2 Bus=X_B13552_A.1 kV=0.24 kVA=40
New Transformer.B34986_1C Phases=1 XHL=2.1 %Loadloss=0.7639 %Noloadloss=0 %imag=0 NormHKVA=25 EmergHKVA=35 Wdg=1 Bus=B34986.3 kV=7.2 kVA=25 Wdg=2 Bus=X_B34986_C.3 kV=0.24 kVA=25
New Transformer.B45835_1B Phases=1 XHL=2.1 %Loadloss=0.7639 %Noloadloss=0 %imag=0 NormHKVA=25 EmergHKVA=35 Wdg=1 Bus=B45835.2 kV=7.2 kVA=25 Wdg=2 Bus=X_B45835_B.2 kV=0.24 kVA=25
New Transformer.B50640_1A Phases=1 XHL=1.5 %Loadloss=1.04 %Noloadloss=0 %imag=0 NormHKVA=15 EmergHKVA=21 Wdg=1 Bus=B50640.1 kV=7.2 kVA=15 Wdg=2 Bus=X_B50640_A.1 kV=0.24 kVA=15
New Transformer.B4805_1C Phases=1 XHL=1.7532 %Loadloss=0.738 %Noloadloss=0 %imag=0 NormHKVA=50 EmergHKVA=70 Wdg=1 Bus=B4805.3 kV=7.2 kVA=50 Wdg=2 Bus=X_B4805_C.3 kV=0.24 kVA=50
New Transformer.B4710_1A Phases=1 XHL=1.5 %Loadloss=1.04 %Noloadloss=0 %imag=0 NormHKVA=15 EmergHKVA=21 Wdg=1 Bus=B4710.1 kV=7.2 kVA=15 Wdg=2 Bus=X_B4710_A.1 kV=0.24 kVA=15
New Transformer.B4859_1A Phases=1 XHL=2.1 %Loadloss=0.7639 %Noloadloss=0 %imag=0 NormHKVA=25 EmergHKVA=35 Wdg=1 Bus=B4859.1 kV=7.2 kVA=25 Wdg=2 Bus=X_B4859_A.1 kV=0.24 kVA=25
New Transformer.B4859_1B Phases=1 XHL=2.1 %Loadloss=0.7639 %Noloadloss=0 %imag=0 NormHKVA=25 EmergHKVA=35 Wdg=1 Bus=B4859.2 kV=7.2 kVA=25 Wdg=2 Bus=X_B4859_B.2 kV=0.24 kVA=25
New Transformer.B4859_1C Phases=1 XHL=2.1 %Loadloss=0.7639 %Noloadloss=0 %imag=0 NormHKVA=25 EmergHKVA=35 Wdg=1 Bus=B4859.3 kV=7.2 kVA=25 Wdg=2 Bus=X_B4859_C.3 kV=0.24 kVA=25
New Transformer.B41240_1A Phases=1 XHL=1.5 %Loadloss=1.04 %Noloadloss=0 %imag=0 NormHKVA=15 EmergHKVA=21 Wdg=1 Bus=B41240.1 kV=7.2 kVA=15 Wdg=2 Bus=X_B41240_A.1 kV=0.24 kVA=15
New Transformer.B55546_1C Phases=1 XHL=1.5 %Loadloss=1.04 %Noloadloss=0 %imag=0 NormHKVA=15 EmergHKVA=21 Wdg=1 Bus=B55546.3 kV=7.2 kVA=15 Wdg=2 Bus=X_B55546_C.3 kV=0.24 kVA=15
New Transformer.B18979_1C Phases=1 XHL=1.5 %Loadloss=1.04 %Noloadloss=0 %imag=0 NormHKVA=15 EmergHKVA=21 Wdg=1 Bus=B18979.3 kV=7.2 kVA=15 Wdg=2 Bus=X_B18979_C.3 kV=0.24 kVA=15
New Transformer.B4982_1B Phases=1 XHL=1.5 %Loadloss=1.04 %Noloadloss=0 %imag=0 NormHKVA=15 EmergHKVA=21 Wdg=1 Bus=B4982.2 kV=7.2 kVA=15 Wdg=2 Bus=X_B4982_B.2 kV=0.24 kVA=15
New Transformer.B18902_1A Phases=1 XHL=1.5 %Loadloss=1.04 %Noloadloss=0 %imag=0 NormHKVA=15 EmergHKVA=21 Wdg=1 Bus=B18902.1 kV=7.2 kVA=15 Wdg=2 Bus=X_B18902_A.1 kV=0.24 kVA=15
New Transformer.B2532_1A Phases=1 XHL=1.5 %Loadloss=1.04 %Noloadloss=0 %imag=0 NormHKVA=15 EmergHKVA=21 Wdg=1 Bus=B2532.1 kV=7.2 kVA=15 Wdg=2 Bus=X_B2532_A.1 kV=0.24 kVA=15
New Transformer.B47668_1A Phases=1 XHL=1.5 %Loadloss=1.04 %Noloadloss=0 %imag=0 NormHKVA=15 EmergHKVA=21 Wdg=1 Bus=B47668.1 kV=7.2 kVA=15 Wdg=2 Bus=X_B47668_A.1 kV=0.24 kVA=15
New Transformer.B47668_1B Phases=1 XHL=1.5 %Loadloss=1.04 %Noloadloss=0 %imag=0 NormHKVA=15 EmergHKVA=21 Wdg=1 Bus=B47668.2 kV=7.2 kVA=15 Wdg=2 Bus=X_B47668_B.2 kV=0.24 kVA=15
New Transformer.B47668_1C Phases=1 XHL=1.5 %Loadloss=1.04 %Noloadloss=0 %imag=0 NormHKVA=15 EmergHKVA=21 Wdg=1 Bus=B47668.3 kV=7.2 kVA=15 Wdg=2 Bus=X_B47668_C.3 kV=0.24 kVA=15
New Transformer.B4891_1C Phases=1 XHL=2.1 %Loadloss=0.7639 %Noloadloss=0 %imag=0 NormHKVA=25 EmergHKVA=35 Wdg=1 Bus=B4891.3 kV=7.2 kVA=25 Wdg=2 Bus=X_B4891_C.3 kV=0.24 kVA=25
New Transformer.B18858_1B Phases=1 XHL=1.5 %Loadloss=1.04 %Noloadloss=0 %imag=0 NormHKVA=15 EmergHKVA=21 Wdg=1 Bus=B18858.2 kV=7.2 kVA=15 Wdg=2 Bus=X_B18858_B.2 kV=0.24 kVA=15
New Transformer.5851228580_1C Phases=1 XHL=2.1 %Loadloss=0.7639 %Noloadloss=0 %imag=0 NormHKVA=25 EmergHKVA=35 Wdg=1 Bus=5851228580.3 kV=7.2 kVA=25 Wdg=2 Bus=X_5851228580_C.3 kV=0.24 kVA=25
New Transformer.B18971_1C Phases=1 XHL=2.1 %Loadloss=0.7639 %Noloadloss=0 %imag=0 NormHKVA=25 EmergHKVA=35 Wdg=1 Bus=B18971.3 kV=7.2 kVA=25 Wdg=2 Bus=X_B18971_C.3 kV=0.24 kVA=25
New Transformer.B8019_1C Phases=1 XHL=2.1 %Loadloss=0.7639 %Noloadloss=0 %imag=0 NormHKVA=25 EmergHKVA=35 Wdg=1 Bus=B8019.3 kV=7.2 kVA=25 Wdg=2 Bus=X_B8019_C.3 kV=0.24 kVA=25
New Transformer.B60843_1C Phases=1 XHL=1.5 %Loadloss=1.04 %Noloadloss=0 %imag=0 NormHKVA=15 EmergHKVA=21 Wdg=1 Bus=B60843.3 kV=7.2 kVA=15 Wdg=2 Bus=X_B60843_C.3 kV=0.24 kVA=15
...